/*--------------------------------*- C++ -*----------------------------------*\
| =========                 |                                                 |
| \\      /  F ield         | OpenFOAM: The Open Source CFD Toolbox           |
|  \\    /   O peration     | Version:  2306                                  |
|   \\  /    A nd           | Website:  www.openfoam.com                      |
|    \\/     M anipulation  |                                                 |
\*---------------------------------------------------------------------------*/
FoamFile
{
    version     2.0;
    format      ascii;
    arch        "LSB;label=32;scalar=64";
    class       polyBoundaryMesh;
    location    "constant/polyMesh";
    object      boundary;
}
// * * * * * * * * * * * * * * * * * * * * * * * * * * * * * * * * * * * * * //

7
(
    inlet
    {
        type            patch;
        nFaces          0;
        startFace       5958;
    }
    outlet
    {
        type            patch;
        nFaces          0;
        startFace       5958;
    }
    upperWall
    {
        type            wall;
        inGroups        1(wall);
        nFaces          55;
        startFace       5958;
    }
    lowerWall
    {
        type            wall;
        inGroups        1(wall);
        nFaces          53;
        startFace       6013;
    }
    frontAndBack
    {
        type            empty;
        inGroups        1(empty);
        nFaces          6070;
        startFace       6066;
    }
    procBoundary3to1
    {
        type            processor;
        inGroups        1(processor);
        nFaces          59;
        startFace       12136;
        matchTolerance  0.0001;
        transform       unknown;
        myProcNo        3;
        neighbProcNo    1;
    }
    procBoundary3to2
    {
        type            processor;
        inGroups        1(processor);
        nFaces          57;
        startFace       12195;
        matchTolerance  0.0001;
        transform       unknown;
        myProcNo        3;
        neighbProcNo    2;
    }
)

// ************************************************************************* //
