/*--------------------------------*- C++ -*----------------------------------*\
| =========                 |                                                 |
| \\      /  F ield         | OpenFOAM: The Open Source CFD Toolbox           |
|  \\    /   O peration     | Version:  2306                                  |
|   \\  /    A nd           | Website:  www.openfoam.com                      |
|    \\/     M anipulation  |                                                 |
\*---------------------------------------------------------------------------*/
FoamFile
{
    version     2.0;
    format      ascii;
    arch        "LSB;label=32;scalar=64";
    class       polyBoundaryMesh;
    location    "constant/polyMesh";
    object      boundary;
}
// * * * * * * * * * * * * * * * * * * * * * * * * * * * * * * * * * * * * * //

6
(
    inlet
    {
        type            patch;
        nFaces          30;
        startFace       5977;
    }
    outlet
    {
        type            patch;
        nFaces          0;
        startFace       6007;
    }
    upperWall
    {
        type            wall;
        inGroups        1(wall);
        nFaces          62;
        startFace       6007;
    }
    lowerWall
    {
        type            wall;
        inGroups        1(wall);
        nFaces          89;
        startFace       6069;
    }
    frontAndBack
    {
        type            empty;
        inGroups        1(empty);
        nFaces          6096;
        startFace       6158;
    }
    procBoundary0to1
    {
        type            processor;
        inGroups        1(processor);
        nFaces          57;
        startFace       12254;
        matchTolerance  0.0001;
        transform       unknown;
        myProcNo        0;
        neighbProcNo    1;
    }
)

// ************************************************************************* //
