/*--------------------------------*- C++ -*----------------------------------*\
| =========                 |                                                 |
| \\      /  F ield         | OpenFOAM: The Open Source CFD Toolbox           |
|  \\    /   O peration     | Version:  2306                                  |
|   \\  /    A nd           | Website:  www.openfoam.com                      |
|    \\/     M anipulation  |                                                 |
\*---------------------------------------------------------------------------*/
FoamFile
{
    version     2.0;
    format      binary;
    arch        "LSB;label=32;scalar=64";
    class       polyBoundaryMesh;
    location    "constant/polyMesh";
    object      boundary;
}
// * * * * * * * * * * * * * * * * * * * * * * * * * * * * * * * * * * * * * //

5
(
    top
    {
        type            wall;
        inGroups        1(wall);
        nFaces          10;
        startFace       2060;
    }
    bottom
    {
        type            wall;
        inGroups        1(wall);
        nFaces          10;
        startFace       2070;
    }
    walls
    {
        type            wall;
        inGroups        1(wall);
        nFaces          180;
        startFace       2080;
    }
    frontAndBack
    {
        type            symmetry;
        inGroups        1(symmetry);
        nFaces          900;
        startFace       2260;
    }
    procBoundary0to1
    {
        type            processor;
        inGroups        1(processor);
        nFaces          180;
        startFace       3160;
        matchTolerance  0.0001;
        transform       unknown;
        myProcNo        0;
        neighbProcNo    1;
    }
)

// ************************************************************************* //
