/*--------------------------------*- C++ -*----------------------------------*\
| =========                 |                                                 |
| \\      /  F ield         | OpenFOAM: The Open Source CFD Toolbox           |
|  \\    /   O peration     | Version:  2312                                  |
|   \\  /    A nd           | Website:  www.openfoam.com                      |
|    \\/     M anipulation  |                                                 |
\*---------------------------------------------------------------------------*/
FoamFile
{
    version     2.0;
    format      ascii;
    arch        "LSB;label=32;scalar=64";
    class       polyBoundaryMesh;
    location    "0.01/polyMesh";
    object      boundary;
}
// * * * * * * * * * * * * * * * * * * * * * * * * * * * * * * * * * * * * * //

4
(
    walls
    {
        type            patch;
        nFaces          2800;
        startFace       1477984;
    }
    inlet
    {
        type            patch;
        nFaces          1120;
        startFace       1480784;
    }
    outlet
    {
        type            patch;
        nFaces          1120;
        startFace       1481904;
    }
    pipe
    {
        type            wall;
        inGroups        1(wall);
        nFaces          190712;
        startFace       1483024;
    }
)

// ************************************************************************* //
