/*--------------------------------*- C++ -*----------------------------------*\
| =========                 |                                                 |
| \\      /  F ield         | OpenFOAM: The Open Source CFD Toolbox           |
|  \\    /   O peration     | Version:  2312                                  |
|   \\  /    A nd           | Website:  www.openfoam.com                      |
|    \\/     M anipulation  |                                                 |
\*---------------------------------------------------------------------------*/
FoamFile
{
    version     2.0;
    format      ascii;
    arch        "LSB;label=32;scalar=64";
    class       extendedFeatureEdgeMesh;
    location    "constant/extendedFeatureEdgeMesh";
    object      sphere.extendedFeatureEdgeMesh;
}
// * * * * * * * * * * * * * * * * * * * * * * * * * * * * * * * * * * * * * //

// points

50
(
(0 0 -0.1)
(0 0 0.1)
(-0.003423 -0.003423 -0.099883)
(-0.001308 -0.004692 -0.099883)
(-0 -0.004841 -0.099883)
(0.001308 -0.004692 -0.099883)
(0.002295 -0.004276 -0.099883)
(0.003423 -0.003423 -0.099883)
(0.004276 -0.002295 -0.099883)
(0.004692 -0.001308 -0.099883)
(0.004824 -0.000575 -0.099883)
(0.004841 -0 -0.099883)
(0.004692 0.001308 -0.099883)
(0.004276 0.002295 -0.099883)
(0.003423 0.003423 -0.099883)
(0.002295 0.004276 -0.099883)
(0.001308 0.004692 -0.099883)
(0.000575 0.004824 -0.099883)
(0 0.004841 -0.099883)
(-0.001308 0.004692 -0.099883)
(-0.002295 0.004276 -0.099883)
(-0.003423 0.003423 -0.099883)
(-0.004692 0.001308 -0.099883)
(-0.004841 -0 -0.099883)
(-0.004824 -0.000575 -0.099883)
(-0.004692 -0.001308 -0.099883)
(-0.003423 -0.003423 0.099883)
(-0.001308 -0.004691 0.099883)
(-0 -0.00484 0.099883)
(0.001308 -0.004691 0.099883)
(0.002295 -0.004276 0.099883)
(0.003423 -0.003423 0.099883)
(0.004276 -0.002295 0.099883)
(0.004691 -0.001308 0.099883)
(0.004824 -0.000575 0.099883)
(0.00484 0 0.099883)
(0.004691 0.001308 0.099883)
(0.004276 0.002295 0.099883)
(0.003423 0.003423 0.099883)
(0.002295 0.004276 0.099883)
(0.001308 0.004691 0.099883)
(0.000575 0.004824 0.099883)
(0 0.00484 0.099883)
(-0.001308 0.004691 0.099883)
(-0.002295 0.004276 0.099883)
(-0.004276 0.002295 0.099883)
(-0.004691 0.001308 0.099883)
(-0.00484 -0 0.099883)
(-0.004824 -0.000575 0.099883)
(-0.004691 -0.001308 0.099883)
)

// edges

82
(
(0 2)
(2 0)
(0 0)
(0 3)
(3 0)
(0 4)
(4 0)
(0 5)
(5 0)
(0 6)
(0 7)
(0 8)
(0 9)
(0 10)
(0 11)
(0 12)
(12 0)
(0 13)
(0 14)
(0 15)
(0 16)
(0 17)
(0 18)
(0 19)
(19 0)
(0 20)
(0 21)
(0 22)
(22 0)
(0 23)
(23 0)
(0 24)
(0 25)
(26 1)
(1 26)
(1 1)
(27 1)
(1 27)
(28 1)
(1 28)
(29 1)
(1 29)
(30 1)
(1 30)
(31 1)
(1 31)
(32 1)
(1 32)
(33 1)
(1 33)
(34 1)
(1 34)
(35 1)
(1 35)
(36 1)
(1 36)
(37 1)
(1 37)
(38 1)
(1 38)
(39 1)
(1 39)
(40 1)
(1 40)
(41 1)
(1 41)
(42 1)
(1 42)
(43 1)
(1 43)
(44 1)
(1 44)
(45 1)
(1 45)
(46 1)
(1 46)
(47 1)
(1 47)
(48 1)
(1 48)
(49 1)
(1 49)
)

// concaveStart mixedStart nonFeatureStart
0 0 2
// internalStart flatStart openStart multipleStart
0 0 0 0
// normals

128
(
(0 0 0)
(-0.0194576 -0.0147139 -0.999702)
(-0.0147139 -0.0194576 -0.999702)
(0 0 0)
(0 0 0)
(0 0 0)
(0 0 0)
(0 0 0)
(0 0 0)
(0 0 0)
(0 0 0)
(0 0 0)
(0 0 0)
(0 0 0)
(0 0 0)
(0 0 0)
(0 0 0)
(0 0 0)
(0 0 0)
(0 0 0)
(0 0 0)
(0 0 0)
(0 0 0)
(0 0 0)
(0 0 0)
(0 0 0)
(0 0 0)
(0 0 0)
(0 0 0)
(0 0 0)
(0 0 0)
(0 0 0)
(0 0 0)
(0 0 0)
(-0.00940253 -0.0223084 -0.999707)
(-0.00427478 -0.023738 -0.999709)
(-0.00071436 -0.0241623 -0.999708)
(0.00071436 -0.0241623 -0.999708)
(0.00427478 -0.023738 -0.999709)
(0.00940253 -0.0223084 -0.999707)
(0.0147139 -0.0194576 -0.999702)
(0.0194576 -0.0147139 -0.999702)
(0.0223084 -0.00940253 -0.999707)
(0.023738 -0.00427478 -0.999709)
(0.0241623 -0.00071436 -0.999708)
(0.0241623 0.00071436 -0.999708)
(0.023738 0.00427478 -0.999709)
(0.0223084 0.00940253 -0.999707)
(0.0194576 0.0147139 -0.999702)
(0.0147139 0.0194576 -0.999702)
(0.00940253 0.0223084 -0.999707)
(0.00427478 0.023738 -0.999709)
(0.00071436 0.0241623 -0.999708)
(-0.00071436 0.0241623 -0.999708)
(-0.00427478 0.023738 -0.999709)
(-0.00940253 0.0223084 -0.999707)
(-0.0147139 0.0194576 -0.999702)
(-0.0194576 0.0147139 -0.999702)
(-0.0223084 0.00940253 -0.999707)
(-0.023738 0.00427478 -0.999709)
(-0.0241623 0.00071436 -0.999708)
(-0.0241623 -0.00071436 -0.999708)
(-0.023738 -0.00427478 -0.999709)
(-0.0223084 -0.00940253 -0.999707)
(0 0 0)
(-0.0194576 -0.0147139 0.999702)
(-0.0147139 -0.0194576 0.999702)
(0 0 0)
(0 0 0)
(0 0 0)
(0 0 0)
(0 0 0)
(0 0 0)
(0 0 0)
(0 0 0)
(0 0 0)
(0 0 0)
(0 0 0)
(0 0 0)
(0 0 0)
(0 0 0)
(0 0 0)
(0 0 0)
(0 0 0)
(0 0 0)
(0 0 0)
(0 0 0)
(0 0 0)
(0 0 0)
(0 0 0)
(0 0 0)
(0 0 0)
(0 0 0)
(0 0 0)
(0 0 0)
(0 0 0)
(0 0 0)
(0 0 0)
(-0.0093841 -0.0223183 0.999707)
(-0.00430647 -0.0237342 0.999709)
(-0.000672486 -0.0241673 0.999708)
(0.000672486 -0.0241673 0.999708)
(0.00430647 -0.0237342 0.999709)
(0.0093841 -0.0223183 0.999707)
(0.0147139 -0.0194576 0.999702)
(0.0194576 -0.0147139 0.999702)
(0.0223183 -0.0093841 0.999707)
(0.0237342 -0.00430647 0.999709)
(0.0241673 -0.000672486 0.999708)
(0.0241673 0.000672486 0.999708)
(0.0237342 0.00430647 0.999709)
(0.0223183 0.0093841 0.999707)
(0.0194576 0.0147139 0.999702)
(0.0147139 0.0194576 0.999702)
(0.0093841 0.0223183 0.999707)
(0.00430647 0.0237342 0.999709)
(0.000672486 0.0241673 0.999708)
(-0.000672486 0.0241673 0.999708)
(-0.00430647 0.0237342 0.999709)
(-0.0093841 0.0223183 0.999707)
(-0.0147139 0.0194576 0.999702)
(-0.0194576 0.0147139 0.999702)
(-0.0223183 0.0093841 0.999707)
(-0.0237342 0.00430647 0.999709)
(-0.0241673 0.000672486 0.999708)
(-0.0241673 -0.000672486 0.999708)
(-0.0237342 -0.00430647 0.999709)
(-0.0223183 -0.0093841 0.999707)
)

// normal volume types

128
(
0
0
0
0
0
0
0
0
0
0
0
0
0
0
0
0
0
0
0
0
0
0
0
0
0
0
0
0
0
0
0
0
0
0
0
0
0
0
0
0
0
0
0
0
0
0
0
0
0
0
0
0
0
0
0
0
0
0
0
0
0
0
0
0
0
0
0
0
0
0
0
0
0
0
0
0
0
0
0
0
0
0
0
0
0
0
0
0
0
0
0
0
0
0
0
0
0
0
0
0
0
0
0
0
0
0
0
0
0
0
0
0
0
0
0
0
0
0
0
0
0
0
0
0
0
0
0
0
)

// normalDirections

82
(
7(-1 1 -1 -1 -1 -1 -1)
5(-1 -1 1 -1 -1)
63{-1}
7(-1 1 -1 -1 -1 -1 -1)
5(-1 -1 1 -1 -1)
7(-1 1 -1 -1 -1 -1 -1)
5(-1 -1 1 -1 -1)
7(-1 1 -1 -1 -1 -1 -1)
5(-1 -1 1 -1 -1)
6(1 -1 -1 -1 -1 -1)
6(1 -1 -1 -1 -1 -1)
6(1 -1 -1 -1 -1 -1)
6(1 -1 -1 -1 -1 -1)
6(1 -1 -1 -1 -1 -1)
6(1 -1 -1 -1 -1 -1)
7(-1 1 -1 -1 -1 -1 -1)
5(-1 -1 1 -1 -1)
6(1 -1 -1 -1 -1 -1)
6(1 -1 -1 -1 -1 -1)
6(1 -1 -1 -1 -1 -1)
6(1 -1 -1 -1 -1 -1)
6(1 -1 -1 -1 -1 -1)
6(1 -1 -1 -1 -1 -1)
7(-1 1 -1 -1 -1 -1 -1)
5(-1 -1 1 -1 -1)
6(1 -1 -1 -1 -1 -1)
6(1 -1 -1 -1 -1 -1)
7(-1 1 -1 -1 -1 -1 -1)
5(-1 -1 1 -1 -1)
7(-1 1 -1 -1 -1 -1 -1)
5(-1 -1 1 -1 -1)
6(1 -1 -1 -1 -1 -1)
6(1 -1 -1 -1 -1 -1)
5(-1 1 -1 -1 -1)
7(-1 -1 1 -1 -1 -1 -1)
63{-1}
5(-1 1 -1 -1 -1)
7(-1 -1 1 -1 -1 -1 -1)
5(-1 1 -1 -1 -1)
7(-1 -1 1 -1 -1 -1 -1)
3(-1 1 -1)
3(-1 -1 1)
3(-1 1 -1)
3(-1 -1 1)
3(-1 1 -1)
3(-1 -1 1)
3(-1 1 -1)
3(-1 -1 1)
3(-1 1 -1)
3(-1 -1 1)
3(-1 1 -1)
3(-1 -1 1)
5(-1 1 -1 -1 -1)
7(-1 -1 1 -1 -1 -1 -1)
3(-1 1 -1)
3(-1 -1 1)
3(-1 1 -1)
3(-1 -1 1)
3(-1 1 -1)
3(-1 -1 1)
3(-1 1 -1)
3(-1 -1 1)
3(-1 1 -1)
3(-1 -1 1)
3(-1 1 -1)
3(-1 -1 1)
5(-1 1 -1 -1 -1)
7(-1 -1 1 -1 -1 -1 -1)
3(-1 1 -1)
3(-1 -1 1)
5(-1 1 -1 -1 -1)
7(-1 -1 1 -1 -1 -1 -1)
3(-1 1 -1)
3(-1 -1 1)
5(-1 1 -1 -1 -1)
7(-1 -1 1 -1 -1 -1 -1)
3(-1 1 -1)
3(-1 -1 1)
3(-1 1 -1)
3(-1 -1 1)
5(-1 1 -1 -1 -1)
7(-1 -1 1 -1 -1 -1 -1)
)

// edgeNormals

82
(
7(0 1 2 3 3 3 3)
5(0 1 2 3 3)

63
(
0
3
3
4
4
5
5
6
6
7
7
8
8
9
9
10
10
11
11
12
12
13
13
14
14
15
15
16
16
17
17
18
18
19
19
20
20
21
21
22
22
23
23
24
24
25
25
26
26
27
27
28
28
29
29
30
30
31
31
32
32
33
33
)

7(4 34 35 5 5 5 5)
5(4 34 35 5 5)
7(6 36 37 7 7 7 7)
5(6 36 37 7 7)
7(8 38 39 9 9 9 9)
5(8 38 39 9 9)
6(39 10 10 10 10 40)
6(40 11 11 11 11 41)
6(41 12 12 12 12 42)
6(42 13 13 13 13 43)
6(43 14 14 14 14 44)
6(44 15 15 15 15 45)
7(16 46 47 17 17 17 17)
5(16 46 47 17 17)
6(47 18 18 18 18 48)
6(48 19 19 19 19 49)
6(49 20 20 20 20 50)
6(50 21 21 21 21 51)
6(51 22 22 22 22 52)
6(52 23 23 23 23 53)
7(24 54 55 25 25 25 25)
5(24 54 55 25 25)
6(55 26 26 26 26 56)
6(56 27 27 27 27 57)
7(28 58 59 29 29 29 29)
5(28 58 59 29 29)
7(30 60 61 31 31 31 31)
5(30 60 61 31 31)
6(61 32 32 32 32 62)
6(62 33 33 33 33 63)
5(64 65 66 67 67)
7(64 65 66 67 67 67 67)

63
(
64
67
67
68
68
69
69
70
70
71
71
72
72
73
73
74
74
75
75
76
76
77
77
78
78
79
79
80
80
81
81
82
82
83
83
84
84
85
85
86
86
87
87
88
88
89
89
90
90
91
91
92
92
93
93
94
94
95
95
96
96
97
97
)

5(68 98 99 69 69)
7(68 98 99 69 69 69 69)
5(70 100 101 71 71)
7(70 100 101 71 71 71 71)
3(72 102 103)
3(72 102 103)
3(73 103 104)
3(73 103 104)
3(74 104 105)
3(74 104 105)
3(75 105 106)
3(75 105 106)
3(76 106 107)
3(76 106 107)
3(77 107 108)
3(77 107 108)
5(78 108 109 79 79)
7(78 108 109 79 79 79 79)
3(80 110 111)
3(80 110 111)
3(81 111 112)
3(81 111 112)
3(82 112 113)
3(82 112 113)
3(83 113 114)
3(83 113 114)
3(84 114 115)
3(84 114 115)
3(85 115 116)
3(85 115 116)
5(86 116 117 87 87)
7(86 116 117 87 87 87 87)
3(88 118 119)
3(88 118 119)
5(89 119 120 90 90)
7(89 119 120 90 90 90 90)
3(91 121 122)
3(91 121 122)
5(92 122 123 93 93)
7(92 122 123 93 93 93 93)
3(94 124 125)
3(94 124 125)
3(95 125 126)
3(95 125 126)
5(96 126 127 97 97)
7(96 126 127 97 97 97 97)
)

// featurePointNormals

2
(

60
(
0
1
2
3
4
5
6
7
8
9
10
11
12
13
14
15
16
17
18
19
20
21
22
23
24
25
26
27
28
29
30
31
32
33
34
35
36
38
39
40
41
42
43
44
46
47
48
49
50
51
52
54
55
56
57
58
59
60
62
63
)


60
(
64
65
66
67
68
69
70
71
72
73
74
75
76
77
78
79
80
81
82
83
84
85
86
87
88
89
90
91
92
93
94
95
96
97
98
99
100
102
103
104
105
106
107
108
110
111
112
113
114
115
116
118
119
120
121
122
123
124
126
127
)

)

// featurePointEdges

2
(

34
(
0
1
2
2
3
4
5
6
7
8
9
10
11
12
13
14
15
16
17
18
19
20
21
22
23
24
25
26
27
28
29
30
31
32
)


50
(
33
34
35
35
36
37
38
39
40
41
42
43
44
45
46
47
48
49
50
51
52
53
54
55
56
57
58
59
60
61
62
63
64
65
66
67
68
69
70
71
72
73
74
75
76
77
78
79
80
81
)

)

// regionEdges

82
(
0
1
2
3
4
5
6
7
8
9
10
11
12
13
14
15
16
17
18
19
20
21
22
23
24
25
26
27
28
29
30
31
32
33
34
35
36
37
38
39
40
41
42
43
44
45
46
47
48
49
50
51
52
53
54
55
56
57
58
59
60
61
62
63
64
65
66
67
68
69
70
71
72
73
74
75
76
77
78
79
80
81
)



// ************************************************************************* //
