FoamFile
{
    version 2.0;
    format ascii;
    class dictionary;
    location "";
    object myDictFile;
}
//************************************************************//

vec_in      (200.0 400.0 800.0);

//************************************************************//