/*--------------------------------*- C++ -*----------------------------------*\
| =========                 |                                                 |
| \\      /  F ield         | OpenFOAM: The Open Source CFD Toolbox           |
|  \\    /   O peration     | Version:  2312                                  |
|   \\  /    A nd           | Website:  www.openfoam.com                      |
|    \\/     M anipulation  |                                                 |
\*---------------------------------------------------------------------------*/
FoamFile
{
    version     2.0;
    format      ascii;
    arch        "LSB;label=32;scalar=64";
    class       polyBoundaryMesh;
    location    "0.005/polyMesh";
    object      boundary;
}
// * * * * * * * * * * * * * * * * * * * * * * * * * * * * * * * * * * * * * //

6
(
    frontAndBack
    {
        type            patch;
        nFaces          320;
        startFace       531488;
    }
    inlet
    {
        type            patch;
        nFaces          64;
        startFace       531808;
    }
    outlet
    {
        type            patch;
        nFaces          64;
        startFace       531872;
    }
    lowerWall
    {
        type            wall;
        inGroups        1(wall);
        nFaces          160;
        startFace       531936;
    }
    upperWall
    {
        type            patch;
        nFaces          160;
        startFace       532096;
    }
    sphere
    {
        type            wall;
        inGroups        1(wall);
        nFaces          49328;
        startFace       532256;
    }
)

// ************************************************************************* //
