/*--------------------------------*- C++ -*----------------------------------*\
| =========                 |                                                 |
| \\      /  F ield         | OpenFOAM: The Open Source CFD Toolbox           |
|  \\    /   O peration     | Version:  2312                                  |
|   \\  /    A nd           | Website:  www.openfoam.com                      |
|    \\/     M anipulation  |                                                 |
\*---------------------------------------------------------------------------*/
FoamFile
{
    version     2.0;
    format      ascii;
    arch        "LSB;label=32;scalar=64";
    class       featureEdgeMesh;
    location    "constant/triSurface";
    object      sphere.eMesh;
}
// * * * * * * * * * * * * * * * * * * * * * * * * * * * * * * * * * * * * * //


// points:

50
(
(0 0 -0.1)
(0 0 0.1)
(-0.003423 -0.003423 -0.099883)
(-0.001308 -0.004692 -0.099883)
(-0 -0.004841 -0.099883)
(0.001308 -0.004692 -0.099883)
(0.002295 -0.004276 -0.099883)
(0.003423 -0.003423 -0.099883)
(0.004276 -0.002295 -0.099883)
(0.004692 -0.001308 -0.099883)
(0.004824 -0.000575 -0.099883)
(0.004841 -0 -0.099883)
(0.004692 0.001308 -0.099883)
(0.004276 0.002295 -0.099883)
(0.003423 0.003423 -0.099883)
(0.002295 0.004276 -0.099883)
(0.001308 0.004692 -0.099883)
(0.000575 0.004824 -0.099883)
(0 0.004841 -0.099883)
(-0.001308 0.004692 -0.099883)
(-0.002295 0.004276 -0.099883)
(-0.003423 0.003423 -0.099883)
(-0.004692 0.001308 -0.099883)
(-0.004841 -0 -0.099883)
(-0.004824 -0.000575 -0.099883)
(-0.004692 -0.001308 -0.099883)
(-0.003423 -0.003423 0.099883)
(-0.001308 -0.004691 0.099883)
(-0 -0.00484 0.099883)
(0.001308 -0.004691 0.099883)
(0.002295 -0.004276 0.099883)
(0.003423 -0.003423 0.099883)
(0.004276 -0.002295 0.099883)
(0.004691 -0.001308 0.099883)
(0.004824 -0.000575 0.099883)
(0.00484 0 0.099883)
(0.004691 0.001308 0.099883)
(0.004276 0.002295 0.099883)
(0.003423 0.003423 0.099883)
(0.002295 0.004276 0.099883)
(0.001308 0.004691 0.099883)
(0.000575 0.004824 0.099883)
(0 0.00484 0.099883)
(-0.001308 0.004691 0.099883)
(-0.002295 0.004276 0.099883)
(-0.004276 0.002295 0.099883)
(-0.004691 0.001308 0.099883)
(-0.00484 -0 0.099883)
(-0.004824 -0.000575 0.099883)
(-0.004691 -0.001308 0.099883)
)


// edges:

82
(
(0 2)
(2 0)
(0 0)
(0 3)
(3 0)
(0 4)
(4 0)
(0 5)
(5 0)
(0 6)
(0 7)
(0 8)
(0 9)
(0 10)
(0 11)
(0 12)
(12 0)
(0 13)
(0 14)
(0 15)
(0 16)
(0 17)
(0 18)
(0 19)
(19 0)
(0 20)
(0 21)
(0 22)
(22 0)
(0 23)
(23 0)
(0 24)
(0 25)
(26 1)
(1 26)
(1 1)
(27 1)
(1 27)
(28 1)
(1 28)
(29 1)
(1 29)
(30 1)
(1 30)
(31 1)
(1 31)
(32 1)
(1 32)
(33 1)
(1 33)
(34 1)
(1 34)
(35 1)
(1 35)
(36 1)
(1 36)
(37 1)
(1 37)
(38 1)
(1 38)
(39 1)
(1 39)
(40 1)
(1 40)
(41 1)
(1 41)
(42 1)
(1 42)
(43 1)
(1 43)
(44 1)
(1 44)
(45 1)
(1 45)
(46 1)
(1 46)
(47 1)
(1 47)
(48 1)
(1 48)
(49 1)
(1 49)
)

// * * * * * * * * * * * * * * * * * * * * * * * * * * * * * * * * * * * * * //


// ************************************************************************* //
